
     RDKit          3D

 49 52  0  0  0  0  0  0  0  0999 V2000
   -2.9950   -1.7298   -0.8050 C   0  0  0  0  0  0  0  0  0  0  0  0
   -2.8300   -0.2049   -0.6720 C   0  0  2  0  0  0  0  0  0  0  0  0
   -2.0417    0.3767   -1.8395 C   0  0  0  0  0  0  0  0  0  0  0  0
   -0.5685   -0.0671   -1.7810 C   0  0  0  0  0  0  0  0  0  0  0  0
    0.1287    0.2064   -0.4150 C   0  0  1  0  0  0  0  0  0  0  0  0
   -0.7483   -0.2603    0.7946 C   0  0  2  0  0  0  0  0  0  0  0  0
   -2.1668    0.2904    0.6265 C   0  0  2  0  0  0  0  0  0  0  0  0
   -3.2126    0.0287    1.7050 C   0  0  0  0  0  0  0  0  0  0  0  0
   -4.5091    0.5210    1.0446 C   0  0  0  0  0  0  0  0  0  0  0  0
   -4.2185    0.3629   -0.4387 C   0  0  0  0  0  0  0  0  0  0  0  0
   -5.0178    0.6363   -1.3240 O   0  0  0  0  0  0  0  0  0  0  0  0
   -0.1379    0.1900    2.1297 C   0  0  0  0  0  0  0  0  0  0  0  0
    1.3542    0.1124    2.1768 C   0  0  0  0  0  0  0  0  0  0  0  0
    2.1393   -0.1252    1.1119 C   0  0  0  0  0  0  0  0  0  0  0  0
    1.5966   -0.3673   -0.3048 C   0  0  2  0  0  0  0  0  0  0  0  0
    2.5514    0.3202   -1.3358 C   0  0  0  0  0  0  0  0  0  0  0  0
    3.2774    1.5391   -0.7575 C   0  0  0  0  0  0  0  0  0  0  0  0
    4.1938    1.1334    0.4071 C   0  0  1  0  0  0  0  0  0  0  0  0
    3.6432   -0.0464    1.2254 C   0  0  0  0  0  0  0  0  0  0  0  0
    5.4740    0.7588   -0.1080 O   0  0  0  0  0  0  0  0  0  0  0  0
    1.6284   -1.8904   -0.5773 C   0  0  0  0  0  0  0  0  0  0  0  0
   -2.0417   -2.2644   -0.7852 H   0  0  0  0  0  0  0  0  0  0  0  0
   -3.6234   -2.1526   -0.0136 H   0  0  0  0  0  0  0  0  0  0  0  0
   -3.4877   -1.9756   -1.7536 H   0  0  0  0  0  0  0  0  0  0  0  0
   -2.0915    1.4733   -1.8259 H   0  0  0  0  0  0  0  0  0  0  0  0
   -2.4818    0.0681   -2.7957 H   0  0  0  0  0  0  0  0  0  0  0  0
   -0.0386    0.4512   -2.5864 H   0  0  0  0  0  0  0  0  0  0  0  0
   -0.5231   -1.1329   -2.0234 H   0  0  0  0  0  0  0  0  0  0  0  0
    0.2070    1.3028   -0.3392 H   0  0  0  0  0  0  0  0  0  0  0  0
   -0.7930   -1.3549    0.8102 H   0  0  0  0  0  0  0  0  0  0  0  0
   -2.0704    1.3891    0.5708 H   0  0  0  0  0  0  0  0  0  0  0  0
   -3.2776   -1.0358    1.9553 H   0  0  0  0  0  0  0  0  0  0  0  0
   -3.0102    0.5763    2.6307 H   0  0  0  0  0  0  0  0  0  0  0  0
   -5.3678   -0.0840    1.3432 H   0  0  0  0  0  0  0  0  0  0  0  0
   -4.6830    1.5792    1.2596 H   0  0  0  0  0  0  0  0  0  0  0  0
   -0.4193    1.2286    2.3449 H   0  0  0  0  0  0  0  0  0  0  0  0
   -0.5514   -0.4227    2.9398 H   0  0  0  0  0  0  0  0  0  0  0  0
    1.8058    0.3155    3.1462 H   0  0  0  0  0  0  0  0  0  0  0  0
    3.3138   -0.3928   -1.6795 H   0  0  0  0  0  0  0  0  0  0  0  0
    2.0158    0.6248   -2.2386 H   0  0  0  0  0  0  0  0  0  0  0  0
    3.8571    2.0248   -1.5510 H   0  0  0  0  0  0  0  0  0  0  0  0
    2.5341    2.2660   -0.4078 H   0  0  0  0  0  0  0  0  0  0  0  0
    4.3511    1.9996    1.0605 H   0  0  0  0  0  0  0  0  0  0  0  0
    4.0860   -0.9929    0.8908 H   0  0  0  0  0  0  0  0  0  0  0  0
    3.9667    0.0649    2.2681 H   0  0  0  0  0  0  0  0  0  0  0  0
    5.8393    1.5316   -0.5719 H   0  0  0  0  0  0  0  0  0  0  0  0
    1.3610   -2.1211   -1.6133 H   0  0  0  0  0  0  0  0  0  0  0  0
    2.6306   -2.3059   -0.4176 H   0  0  0  0  0  0  0  0  0  0  0  0
    0.9512   -2.4451    0.0792 H   0  0  0  0  0  0  0  0  0  0  0  0
  2  1  1  1
  2  3  1  0
  3  4  1  0
  4  5  1  0
  5  6  1  0
  6  7  1  0
  7  8  1  0
  8  9  1  0
  9 10  1  0
 10 11  2  0
  6 12  1  0
 12 13  1  0
 13 14  2  0
 14 15  1  0
 15 16  1  0
 16 17  1  0
 17 18  1  0
 18 19  1  0
 18 20  1  0
 15 21  1  6
  7  2  1  0
 10  2  1  0
 15  5  1  0
 19 14  1  0
  1 22  1  0
  1 23  1  0
  1 24  1  0
  3 25  1  0
  3 26  1  0
  4 27  1  0
  4 28  1  0
  5 29  1  1
  6 30  1  1
  7 31  1  6
  8 32  1  0
  8 33  1  0
  9 34  1  0
  9 35  1  0
 12 36  1  0
 12 37  1  0
 13 38  1  0
 16 39  1  0
 16 40  1  0
 17 41  1  0
 17 42  1  0
 18 43  1  1
 19 44  1  0
 19 45  1  0
 20 46  1  0
 21 47  1  0
 21 48  1  0
 21 49  1  0
M  END
$$$$
