
     RDKit          3D

 44 47  0  0  0  0  0  0  0  0999 V2000
   -2.3072   -0.5285   -1.6400 C   0  0  0  0  0  0  0  0  0  0  0  0
   -2.1055    0.6579   -0.6626 C   0  0  2  0  0  0  0  0  0  0  0  0
   -1.1688    1.6885   -1.3045 C   0  0  0  0  0  0  0  0  0  0  0  0
    0.2766    1.1643   -1.4061 C   0  0  0  0  0  0  0  0  0  0  0  0
    0.8363    0.6216   -0.0637 C   0  0  1  0  0  0  0  0  0  0  0  0
   -0.1513   -0.3910    0.5920 C   0  0  2  0  0  0  0  0  0  0  0  0
   -1.5237    0.2713    0.7118 C   0  0  2  0  0  0  0  0  0  0  0  0
   -2.6656   -0.4899    1.3797 C   0  0  0  0  0  0  0  0  0  0  0  0
   -3.9340    0.2218    0.8744 C   0  0  0  0  0  0  0  0  0  0  0  0
   -3.4683    1.2149   -0.2084 C   0  0  2  0  0  0  0  0  0  0  0  0
   -4.4032    1.3179   -1.2645 O   0  0  0  0  0  0  0  0  0  0  0  0
    0.4102   -0.8275    1.9467 C   0  0  0  0  0  0  0  0  0  0  0  0
    1.7072   -1.6051    1.7439 C   0  0  0  0  0  0  0  0  0  0  0  0
    2.6549   -0.9713    0.7544 C   0  0  0  0  0  0  0  0  0  0  0  0
    2.2500    0.0480   -0.1357 C   0  0  0  0  0  0  0  0  0  0  0  0
    3.2064    0.5758   -1.0230 C   0  0  0  0  0  0  0  0  0  0  0  0
    4.5136    0.0826   -1.0625 C   0  0  0  0  0  0  0  0  0  0  0  0
    4.8832   -0.9388   -0.2014 C   0  0  0  0  0  0  0  0  0  0  0  0
    3.9698   -1.4654    0.7004 C   0  0  0  0  0  0  0  0  0  0  0  0
    6.1452   -1.4541   -0.2064 O   0  0  0  0  0  0  0  0  0  0  0  0
   -2.9949   -1.2833   -1.2458 H   0  0  0  0  0  0  0  0  0  0  0  0
   -2.7258   -0.1777   -2.5906 H   0  0  0  0  0  0  0  0  0  0  0  0
   -1.3732   -1.0436   -1.8789 H   0  0  0  0  0  0  0  0  0  0  0  0
   -1.1605    2.6094   -0.7066 H   0  0  0  0  0  0  0  0  0  0  0  0
   -1.5286    1.9725   -2.3007 H   0  0  0  0  0  0  0  0  0  0  0  0
    0.8937    1.9963   -1.7645 H   0  0  0  0  0  0  0  0  0  0  0  0
    0.3391    0.3855   -2.1757 H   0  0  0  0  0  0  0  0  0  0  0  0
    0.9170    1.4895    0.6092 H   0  0  0  0  0  0  0  0  0  0  0  0
   -0.2303   -1.2877   -0.0361 H   0  0  0  0  0  0  0  0  0  0  0  0
   -1.3839    1.1907    1.3050 H   0  0  0  0  0  0  0  0  0  0  0  0
   -2.5988   -0.4543    2.4718 H   0  0  0  0  0  0  0  0  0  0  0  0
   -2.6745   -1.5443    1.0820 H   0  0  0  0  0  0  0  0  0  0  0  0
   -4.6583   -0.5028    0.4856 H   0  0  0  0  0  0  0  0  0  0  0  0
   -4.4297    0.7608    1.6896 H   0  0  0  0  0  0  0  0  0  0  0  0
   -3.3491    2.2114    0.2355 H   0  0  0  0  0  0  0  0  0  0  0  0
   -5.2541    1.5849   -0.8769 H   0  0  0  0  0  0  0  0  0  0  0  0
   -0.3014   -1.4623    2.4862 H   0  0  0  0  0  0  0  0  0  0  0  0
    0.5962    0.0513    2.5777 H   0  0  0  0  0  0  0  0  0  0  0  0
    1.4663   -2.6123    1.3801 H   0  0  0  0  0  0  0  0  0  0  0  0
    2.2042   -1.7165    2.7152 H   0  0  0  0  0  0  0  0  0  0  0  0
    2.9546    1.3884   -1.6986 H   0  0  0  0  0  0  0  0  0  0  0  0
    5.2203    0.5115   -1.7653 H   0  0  0  0  0  0  0  0  0  0  0  0
    4.2846   -2.2652    1.3664 H   0  0  0  0  0  0  0  0  0  0  0  0
    6.6613   -0.9955   -0.8890 H   0  0  0  0  0  0  0  0  0  0  0  0
  2  1  1  6
  2  3  1  0
  3  4  1  0
  4  5  1  0
  5  6  1  0
  6  7  1  0
  7  8  1  0
  8  9  1  0
  9 10  1  0
 10 11  1  0
  6 12  1  0
 12 13  1  0
 13 14  1  0
 14 15  2  0
 15 16  1  0
 16 17  2  0
 17 18  1  0
 18 19  2  0
 18 20  1  0
  7  2  1  0
 10  2  1  0
 15  5  1  0
 19 14  1  0
  1 21  1  0
  1 22  1  0
  1 23  1  0
  3 24  1  0
  3 25  1  0
  4 26  1  0
  4 27  1  0
  5 28  1  1
  6 29  1  6
  7 30  1  1
  8 31  1  0
  8 32  1  0
  9 33  1  0
  9 34  1  0
 10 35  1  1
 11 36  1  0
 12 37  1  0
 12 38  1  0
 13 39  1  0
 13 40  1  0
 16 41  1  0
 17 42  1  0
 19 43  1  0
 20 44  1  0
M  END
$$$$
