
     RDKit          3D

 53 56  0  0  0  0  0  0  0  0999 V2000
    4.9699    0.4577   -1.6410 C   0  0  0  0  0  0  0  0  0  0  0  0
    4.6691   -0.1795   -0.3087 C   0  0  0  0  0  0  0  0  0  0  0  0
    5.4694   -0.0790    0.6214 O   0  0  0  0  0  0  0  0  0  0  0  0
    3.3313   -0.9027   -0.1676 C   0  0  1  0  0  0  0  0  0  0  0  0
    3.2727   -1.8407    1.0657 C   0  0  0  0  0  0  0  0  0  0  0  0
    1.8381   -1.7624    1.6118 C   0  0  0  0  0  0  0  0  0  0  0  0
    1.0735   -1.0313    0.5165 C   0  0  2  0  0  0  0  0  0  0  0  0
    2.0909    0.0099   -0.0039 C   0  0  2  0  0  0  0  0  0  0  0  0
    1.5227    0.5891   -1.3081 C   0  0  0  0  0  0  0  0  0  0  0  0
    0.1228    1.1966   -1.1051 C   0  0  0  0  0  0  0  0  0  0  0  0
   -0.8856    0.2253   -0.4358 C   0  0  1  0  0  0  0  0  0  0  0  0
   -0.2931   -0.4237    0.8528 C   0  0  1  0  0  0  0  0  0  0  0  0
   -1.2586   -1.4834    1.3996 C   0  0  0  0  0  0  0  0  0  0  0  0
   -2.6252   -0.8819    1.7007 C   0  0  0  0  0  0  0  0  0  0  0  0
   -3.2131   -0.1788    0.4998 C   0  0  0  0  0  0  0  0  0  0  0  0
   -4.4740   -0.4550    0.1212 C   0  0  0  0  0  0  0  0  0  0  0  0
   -5.1425    0.2896   -0.9701 C   0  0  0  0  0  0  0  0  0  0  0  0
   -6.2818   -0.0233   -1.3065 O   0  0  0  0  0  0  0  0  0  0  0  0
   -4.4203    1.4674   -1.5675 C   0  0  0  0  0  0  0  0  0  0  0  0
   -2.9204    1.2116   -1.5965 C   0  0  0  0  0  0  0  0  0  0  0  0
   -2.3170    0.8472   -0.2072 C   0  0  2  0  0  0  0  0  0  0  0  0
   -2.2626    2.1218    0.6648 C   0  0  0  0  0  0  0  0  0  0  0  0
    2.3858    1.1558    0.9970 C   0  0  0  0  0  0  0  0  0  0  0  0
    4.5192    1.4509   -1.6850 H   0  0  0  0  0  0  0  0  0  0  0  0
    4.5876   -0.1659   -2.4530 H   0  0  0  0  0  0  0  0  0  0  0  0
    6.0530    0.5470   -1.7637 H   0  0  0  0  0  0  0  0  0  0  0  0
    3.2188   -1.5348   -1.0597 H   0  0  0  0  0  0  0  0  0  0  0  0
    3.9839   -1.5734    1.8539 H   0  0  0  0  0  0  0  0  0  0  0  0
    3.5096   -2.8664    0.7594 H   0  0  0  0  0  0  0  0  0  0  0  0
    1.8155   -1.2079    2.5565 H   0  0  0  0  0  0  0  0  0  0  0  0
    1.4329   -2.7610    1.8041 H   0  0  0  0  0  0  0  0  0  0  0  0
    0.9009   -1.7739   -0.2810 H   0  0  0  0  0  0  0  0  0  0  0  0
    1.4560   -0.1972   -2.0711 H   0  0  0  0  0  0  0  0  0  0  0  0
    2.1866    1.3591   -1.7154 H   0  0  0  0  0  0  0  0  0  0  0  0
    0.2166    2.1131   -0.5142 H   0  0  0  0  0  0  0  0  0  0  0  0
   -0.2497    1.5023   -2.0890 H   0  0  0  0  0  0  0  0  0  0  0  0
   -1.0178   -0.6009   -1.1537 H   0  0  0  0  0  0  0  0  0  0  0  0
   -0.1670    0.3396    1.6282 H   0  0  0  0  0  0  0  0  0  0  0  0
   -1.3667   -2.3043    0.6788 H   0  0  0  0  0  0  0  0  0  0  0  0
   -0.8579   -1.9208    2.3214 H   0  0  0  0  0  0  0  0  0  0  0  0
   -2.5364   -0.1634    2.5249 H   0  0  0  0  0  0  0  0  0  0  0  0
   -3.2888   -1.6789    2.0583 H   0  0  0  0  0  0  0  0  0  0  0  0
   -5.0918   -1.1919    0.6230 H   0  0  0  0  0  0  0  0  0  0  0  0
   -4.7797    1.6120   -2.5923 H   0  0  0  0  0  0  0  0  0  0  0  0
   -4.6688    2.3629   -0.9894 H   0  0  0  0  0  0  0  0  0  0  0  0
   -2.7315    0.3908   -2.3027 H   0  0  0  0  0  0  0  0  0  0  0  0
   -2.4263    2.0978   -2.0126 H   0  0  0  0  0  0  0  0  0  0  0  0
   -3.2674    2.4691    0.9324 H   0  0  0  0  0  0  0  0  0  0  0  0
   -1.7235    1.9598    1.6033 H   0  0  0  0  0  0  0  0  0  0  0  0
   -1.7699    2.9479    0.1414 H   0  0  0  0  0  0  0  0  0  0  0  0
    1.4881    1.7090    1.2851 H   0  0  0  0  0  0  0  0  0  0  0  0
    3.0754    1.8854    0.5573 H   0  0  0  0  0  0  0  0  0  0  0  0
    2.8467    0.7942    1.9218 H   0  0  0  0  0  0  0  0  0  0  0  0
  1  2  1  0
  2  3  2  0
  2  4  1  0
  4  5  1  0
  5  6  1  0
  6  7  1  0
  7  8  1  0
  8  9  1  0
  9 10  1  0
 10 11  1  0
 11 12  1  0
 12 13  1  0
 13 14  1  0
 14 15  1  0
 15 16  2  0
 16 17  1  0
 17 18  2  0
 17 19  1  0
 19 20  1  0
 20 21  1  0
 21 22  1  1
  8 23  1  1
  8  4  1  0
 12  7  1  0
 21 11  1  0
 21 15  1  0
  1 24  1  0
  1 25  1  0
  1 26  1  0
  4 27  1  6
  5 28  1  0
  5 29  1  0
  6 30  1  0
  6 31  1  0
  7 32  1  6
  9 33  1  0
  9 34  1  0
 10 35  1  0
 10 36  1  0
 11 37  1  6
 12 38  1  1
 13 39  1  0
 13 40  1  0
 14 41  1  0
 14 42  1  0
 16 43  1  0
 19 44  1  0
 19 45  1  0
 20 46  1  0
 20 47  1  0
 22 48  1  0
 22 49  1  0
 22 50  1  0
 23 51  1  0
 23 52  1  0
 23 53  1  0
M  END
$$$$
