
     RDKit          3D

 49 52  0  0  0  0  0  0  0  0999 V2000
   -2.6591    1.7460    0.4076 C   0  0  0  0  0  0  0  0  0  0  0  0
   -2.4326    0.2307    0.6543 C   0  0  2  0  0  0  0  0  0  0  0  0
   -1.5978    0.0528    1.9308 C   0  0  0  0  0  0  0  0  0  0  0  0
   -0.1373    0.5081    1.7298 C   0  0  0  0  0  0  0  0  0  0  0  0
    0.5271   -0.1655    0.5038 C   0  0  1  0  0  0  0  0  0  0  0  0
   -0.3346    0.0378   -0.7861 C   0  0  2  0  0  0  0  0  0  0  0  0
   -1.7341   -0.5202   -0.5045 C   0  0  2  0  0  0  0  0  0  0  0  0
   -2.7905   -0.5198   -1.6067 C   0  0  0  0  0  0  0  0  0  0  0  0
   -4.1230   -0.6548   -0.8458 C   0  0  0  0  0  0  0  0  0  0  0  0
   -3.7825   -0.5130    0.6502 C   0  0  2  0  0  0  0  0  0  0  0  0
   -4.8127    0.1675    1.3396 O   0  0  0  0  0  0  0  0  0  0  0  0
    0.3375   -0.5410   -2.0462 C   0  0  0  0  0  0  0  0  0  0  0  0
    1.5744   -1.3882   -1.7628 C   0  0  0  0  0  0  0  0  0  0  0  0
    2.5673   -0.7425   -0.8206 C   0  0  0  0  0  0  0  0  0  0  0  0
    3.8623   -1.1009   -0.8831 C   0  0  0  0  0  0  0  0  0  0  0  0
    4.8546   -0.6203    0.1064 C   0  0  0  0  0  0  0  0  0  0  0  0
    6.0463   -0.8614   -0.0751 O   0  0  0  0  0  0  0  0  0  0  0  0
    4.3737    0.1655    1.3024 C   0  0  0  0  0  0  0  0  0  0  0  0
    2.8711    0.0165    1.5363 C   0  0  0  0  0  0  0  0  0  0  0  0
    2.0258    0.2101    0.2503 C   0  0  2  0  0  0  0  0  0  0  0  0
    2.1727    1.6722   -0.2343 C   0  0  0  0  0  0  0  0  0  0  0  0
   -3.1731    2.2024    1.2618 H   0  0  0  0  0  0  0  0  0  0  0  0
   -3.2742    1.9402   -0.4765 H   0  0  0  0  0  0  0  0  0  0  0  0
   -1.7259    2.2986    0.2728 H   0  0  0  0  0  0  0  0  0  0  0  0
   -2.0431    0.6057    2.7666 H   0  0  0  0  0  0  0  0  0  0  0  0
   -1.5934   -1.0039    2.2285 H   0  0  0  0  0  0  0  0  0  0  0  0
   -0.0956    1.5979    1.6345 H   0  0  0  0  0  0  0  0  0  0  0  0
    0.4117    0.2546    2.6432 H   0  0  0  0  0  0  0  0  0  0  0  0
    0.5115   -1.2430    0.7377 H   0  0  0  0  0  0  0  0  0  0  0  0
   -0.4437    1.1115   -0.9763 H   0  0  0  0  0  0  0  0  0  0  0  0
   -1.6017   -1.5755   -0.2131 H   0  0  0  0  0  0  0  0  0  0  0  0
   -2.6558   -1.3483   -2.3092 H   0  0  0  0  0  0  0  0  0  0  0  0
   -2.7698    0.4112   -2.1838 H   0  0  0  0  0  0  0  0  0  0  0  0
   -4.5822   -1.6316   -1.0349 H   0  0  0  0  0  0  0  0  0  0  0  0
   -4.8404    0.1030   -1.1804 H   0  0  0  0  0  0  0  0  0  0  0  0
   -3.6820   -1.5123    1.0923 H   0  0  0  0  0  0  0  0  0  0  0  0
   -4.5328    0.2611    2.2660 H   0  0  0  0  0  0  0  0  0  0  0  0
    0.6362    0.2948   -2.6934 H   0  0  0  0  0  0  0  0  0  0  0  0
   -0.3661   -1.1313   -2.6422 H   0  0  0  0  0  0  0  0  0  0  0  0
    1.2491   -2.3379   -1.3179 H   0  0  0  0  0  0  0  0  0  0  0  0
    2.0556   -1.6375   -2.7169 H   0  0  0  0  0  0  0  0  0  0  0  0
    4.2464   -1.7870   -1.6303 H   0  0  0  0  0  0  0  0  0  0  0  0
    4.6455    1.2155    1.1536 H   0  0  0  0  0  0  0  0  0  0  0  0
    4.9075   -0.1973    2.1880 H   0  0  0  0  0  0  0  0  0  0  0  0
    2.5756    0.7362    2.3088 H   0  0  0  0  0  0  0  0  0  0  0  0
    2.6800   -0.9837    1.9498 H   0  0  0  0  0  0  0  0  0  0  0  0
    1.8138    2.3769    0.5231 H   0  0  0  0  0  0  0  0  0  0  0  0
    3.2151    1.9310   -0.4501 H   0  0  0  0  0  0  0  0  0  0  0  0
    1.6231    1.8696   -1.1589 H   0  0  0  0  0  0  0  0  0  0  0  0
  2  1  1  6
  2  3  1  0
  3  4  1  0
  4  5  1  0
  5  6  1  0
  6  7  1  0
  7  8  1  0
  8  9  1  0
  9 10  1  0
 10 11  1  0
  6 12  1  0
 12 13  1  0
 13 14  1  0
 14 15  2  0
 15 16  1  0
 16 17  2  0
 16 18  1  0
 18 19  1  0
 19 20  1  0
 20 21  1  6
  7  2  1  0
 10  2  1  0
 20  5  1  0
 20 14  1  0
  1 22  1  0
  1 23  1  0
  1 24  1  0
  3 25  1  0
  3 26  1  0
  4 27  1  0
  4 28  1  0
  5 29  1  1
  6 30  1  6
  7 31  1  1
  8 32  1  0
  8 33  1  0
  9 34  1  0
  9 35  1  0
 10 36  1  1
 11 37  1  0
 12 38  1  0
 12 39  1  0
 13 40  1  0
 13 41  1  0
 15 42  1  0
 18 43  1  0
 18 44  1  0
 19 45  1  0
 19 46  1  0
 21 47  1  0
 21 48  1  0
 21 49  1  0
M  END
$$$$
